Version 4
SHEET 1 880 680
WIRE 656 -96 64 -96
WIRE 480 -80 192 -80
WIRE 752 -80 480 -80
WIRE 480 -16 480 -80
WIRE 416 32 400 32
WIRE 752 48 752 -80
WIRE 192 80 192 -80
WIRE 64 96 64 -96
WIRE 144 96 64 96
WIRE 480 96 480 80
WIRE 656 96 656 -96
WIRE 656 96 480 96
WIRE 688 96 688 32
WIRE 688 96 656 96
WIRE 288 112 208 112
WIRE 400 112 400 32
WIRE 400 112 368 112
WIRE 144 128 32 128
WIRE 656 128 656 96
WIRE 480 144 480 96
WIRE 32 176 32 128
WIRE 400 192 400 112
WIRE 416 192 400 192
WIRE 176 304 176 144
WIRE 480 304 480 240
WIRE 480 304 176 304
WIRE 480 368 480 304
WIRE 32 384 32 256
WIRE 480 480 480 448
WIRE 656 480 656 208
WIRE 656 480 480 480
WIRE 672 480 656 480
WIRE 752 480 752 128
WIRE 752 480 672 480
WIRE 672 496 672 480
FLAG 32 384 0
FLAG 672 496 0
FLAG 688 32 vout
FLAG 32 128 vin
SYMBOL OpAmps\\LM108A 176 48 R0
SYMATTR InstName U1
SYMBOL voltage 752 32 R0
WINDOW 123 0 0 Left 0
WINDOW 39 0 0 Left 0
SYMATTR InstName V1
SYMATTR Value 153
SYMBOL voltage 480 464 R180
WINDOW 0 24 96 Left 2
WINDOW 3 24 16 Left 2
WINDOW 123 0 0 Left 0
WINDOW 39 0 0 Left 0
SYMATTR InstName V2
SYMATTR Value 15
SYMBOL npn 416 -16 R0
SYMATTR InstName Q1
SYMATTR Value 2N3904
SYMBOL pnp 416 144 R0
SYMATTR InstName Q2
SYMATTR Value 2N3906
SYMBOL res 384 96 R90
WINDOW 0 0 56 VBottom 2
WINDOW 3 32 56 VTop 2
SYMATTR InstName R1
SYMATTR Value 390
SYMBOL res 640 112 R0
SYMATTR InstName R2
SYMATTR Value 1k
SYMBOL voltage 32 160 R0
WINDOW 123 0 0 Left 0
WINDOW 39 0 0 Left 0
SYMATTR InstName V3
SYMATTR Value SINE(0 1 1k)
TEXT 0 520 Left 2 !.tran 10m
