Version 4
SHEET 1 968 680
WIRE 128 -96 -32 -96
WIRE 352 -96 128 -96
WIRE 624 -96 352 -96
WIRE 912 -96 624 -96
WIRE -32 -16 -32 -96
WIRE 128 -16 128 -96
WIRE 352 -16 352 -96
WIRE 128 80 128 64
WIRE 224 80 128 80
WIRE 352 80 352 64
WIRE 464 80 352 80
WIRE 128 112 128 80
WIRE 352 112 352 80
WIRE 624 112 624 -96
WIRE -160 160 -240 160
WIRE -32 160 -32 64
WIRE -32 160 -96 160
WIRE 64 160 -32 160
WIRE 224 160 224 80
WIRE 288 160 224 160
WIRE 464 160 464 80
WIRE 560 160 464 160
WIRE 912 160 912 -96
WIRE -240 208 -240 160
WIRE -32 208 -32 160
WIRE 624 240 624 208
WIRE 720 240 624 240
WIRE 128 272 128 208
WIRE 352 272 352 208
WIRE 624 272 624 240
WIRE 128 416 128 352
WIRE 240 416 128 416
WIRE 352 416 352 352
WIRE 464 416 352 416
WIRE 128 432 128 416
WIRE 352 432 352 416
WIRE 240 448 240 416
WIRE 464 448 464 416
WIRE -240 560 -240 288
WIRE -32 560 -32 288
WIRE -32 560 -240 560
WIRE 128 560 128 512
WIRE 128 560 -32 560
WIRE 240 560 240 512
WIRE 240 560 128 560
WIRE 288 560 240 560
WIRE 352 560 352 512
WIRE 352 560 288 560
WIRE 464 560 464 512
WIRE 464 560 352 560
WIRE 624 560 624 352
WIRE 624 560 464 560
WIRE 912 560 912 240
WIRE 912 560 624 560
WIRE 288 640 288 560
FLAG 288 640 0
FLAG 720 240 v5
FLAG 464 80 v4
FLAG 224 80 v7
FLAG -240 160 v1
SYMBOL npn 64 112 R0
SYMATTR InstName Q1
SYMATTR Value 2N3904
SYMBOL npn 288 112 R0
SYMATTR InstName Q2
SYMATTR Value 2N3904
SYMBOL npn 560 112 R0
SYMATTR InstName Q3
SYMBOL res 112 -32 R0
SYMATTR InstName R1
SYMATTR Value 3k
SYMBOL res 336 -32 R0
SYMATTR InstName R2
SYMATTR Value 2k
SYMBOL res -48 -32 R0
SYMATTR InstName R3
SYMATTR Value 40k
SYMBOL res 112 256 R0
SYMATTR InstName R4
SYMATTR Value 0.2k
SYMBOL res 336 256 R0
SYMATTR InstName R5
SYMATTR Value 0.2k
SYMBOL res 608 256 R0
SYMATTR InstName R6
SYMATTR Value 3.3k
SYMBOL res 112 416 R0
SYMATTR InstName R7
SYMATTR Value 1.1k
SYMBOL res 336 416 R0
SYMATTR InstName R8
SYMATTR Value 3.1k
SYMBOL res -48 192 R0
SYMATTR InstName R9
SYMATTR Value 20k
SYMBOL cap -96 144 R90
WINDOW 0 0 32 VBottom 2
WINDOW 3 32 32 VTop 2
SYMATTR InstName C1
SYMATTR Value 10µ
SYMBOL voltage -240 192 R0
WINDOW 123 0 0 Left 0
WINDOW 39 0 0 Left 0
SYMATTR InstName V1
SYMATTR Value SINE(0 5m 1k)
SYMBOL voltage 912 144 R0
WINDOW 123 0 0 Left 0
WINDOW 39 0 0 Left 0
SYMATTR InstName V2
SYMATTR Value 6
SYMBOL cap 224 448 R0
SYMATTR InstName C2
SYMATTR Value 22µ
SYMBOL cap 448 448 R0
SYMATTR InstName C3
SYMATTR Value 22µ
TEXT -274 664 Left 2 !.tran 25m
