Version 4
SHEET 1 1512 680
WIRE 496 -96 160 -96
WIRE 1232 -80 1104 -80
WIRE 1456 -80 1232 -80
WIRE 160 -16 160 -96
WIRE 160 -16 80 -16
WIRE 224 -16 160 -16
WIRE 1104 -16 1104 -80
WIRE 1232 -16 1232 -80
WIRE 80 0 80 -16
WIRE 224 0 224 -16
WIRE 1232 80 1232 64
WIRE 1312 80 1232 80
WIRE 224 96 224 80
WIRE 320 96 224 96
WIRE 1232 96 1232 80
WIRE 224 112 224 96
WIRE 496 128 496 -96
WIRE 992 144 864 144
WIRE 1104 144 1104 64
WIRE 1104 144 1056 144
WIRE 1168 144 1104 144
WIRE -48 160 -144 160
WIRE 80 160 80 80
WIRE 80 160 16 160
WIRE 160 160 80 160
WIRE 1456 160 1456 -80
WIRE 864 192 864 144
WIRE -144 208 -144 160
WIRE 224 224 224 208
WIRE 320 224 224 224
WIRE 80 240 80 160
WIRE 224 240 224 224
WIRE 1104 240 1104 144
WIRE 1232 240 1232 192
WIRE 320 256 320 224
WIRE -144 352 -144 288
WIRE 80 352 80 320
WIRE 80 352 -144 352
WIRE 224 352 224 320
WIRE 224 352 80 352
WIRE 320 352 320 320
WIRE 320 352 224 352
WIRE 496 352 496 208
WIRE 496 352 320 352
WIRE 864 384 864 272
WIRE 1104 384 1104 320
WIRE 1104 384 864 384
WIRE 1168 384 1104 384
WIRE 1232 384 1232 320
WIRE 1232 384 1168 384
WIRE 1456 384 1456 240
WIRE 1456 384 1232 384
WIRE 224 416 224 352
WIRE 1168 432 1168 384
FLAG 224 416 0
FLAG -144 160 vin
FLAG 320 96 vout
FLAG 1168 432 0
FLAG 1312 80 vout1
FLAG 864 144 vin1
SYMBOL npn 160 112 R0
SYMATTR InstName Q1
SYMATTR Value 2N3904
SYMBOL res 208 -16 R0
SYMATTR InstName R1
SYMATTR Value 7.5k
SYMBOL res 64 224 R0
SYMATTR InstName R2
SYMATTR Value 10k
SYMBOL res 64 -16 R0
SYMATTR InstName R3
SYMATTR Value 82k
SYMBOL res 208 224 R0
SYMATTR InstName R4
SYMATTR Value 1k
SYMBOL cap 304 256 R0
SYMATTR InstName C1
SYMATTR Value 15µ
SYMBOL cap 16 144 R90
WINDOW 0 0 32 VBottom 2
WINDOW 3 32 32 VTop 2
SYMATTR InstName C2
SYMATTR Value 0.1µ
SYMBOL voltage 496 112 R0
WINDOW 123 0 0 Left 0
WINDOW 39 0 0 Left 0
SYMATTR InstName V1
SYMATTR Value 5
SYMBOL voltage -144 192 R0
WINDOW 123 0 0 Left 0
WINDOW 39 0 0 Left 0
SYMATTR InstName V2
SYMATTR Value SINE(0 5m 1k)
SYMBOL npn 1168 96 R0
SYMATTR InstName Q2
SYMATTR Value 2N3904
SYMBOL res 1216 -32 R0
SYMATTR InstName R5
SYMATTR Value 7.5k
SYMBOL res 1088 -32 R0
SYMATTR InstName R6
SYMATTR Value 82k
SYMBOL res 1088 224 R0
SYMATTR InstName R7
SYMATTR Value 10k
SYMBOL res 1216 224 R0
SYMATTR InstName R8
SYMATTR Value 1k
SYMBOL cap 1056 128 R90
WINDOW 0 0 32 VBottom 2
WINDOW 3 32 32 VTop 2
SYMATTR InstName C3
SYMATTR Value 0.1µ
SYMBOL voltage 864 176 R0
WINDOW 123 0 0 Left 0
WINDOW 39 0 0 Left 0
SYMATTR InstName V3
SYMATTR Value SINE(0 5m 1k)
SYMBOL voltage 1456 144 R0
WINDOW 123 0 0 Left 0
WINDOW 39 0 0 Left 0
SYMATTR InstName V4
SYMATTR Value 5
TEXT -178 440 Left 2 !.tran 10m
